 3
Model 1  E= -76.042726
O   0.2218634400   0.0646238840   0.0000000000
H   -1.0869454000   1.3371949000   0.0000000000
H   -0.6879621100   -1.8541860000   0.0000000000
 3
Model 2  E= -76.08254
O   0.1274880172   0.0611963096   0.0000000000
H   -1.0220395144   1.2640855622   0.0000000000
H   -0.6584925727   -1.7776490878   0.0000000000
 3
Model 3  E= -76.145818
O   0.0121140933   0.0764950220   0.0000000000
H   -0.9332440772   1.1377941453   -0.0000000000
H   -0.6319140861   -1.6666563833   0.0000000000
 3
Model 4  E= -76.222764
O   -0.1060904485   0.1078261112   0.0000000000
H   -0.8348681752   0.9729787133   -0.0000000000
H   -0.6120854462   -1.5331720405   0.0000000000
 3
Model 5  E= -76.273654
O   -0.1896201679   0.0931945267   0.0000000000
H   -0.7686371909   0.8099668628   0.0000000000
H   -0.5947867112   -1.3555286054   0.0000000000
 3
Model 6  E= -76.352203
O   -0.2329955301   -0.0424255187   0.0000000000
H   -0.7591842190   0.7376047842   0.0000000000
H   -0.5608643209   -1.1475464815   0.0000000000
 3
Model 7  E= -76.318583
O   -0.0961122662   -0.1815550059   0.0000000000
H   -0.8775484595   0.8699450936   0.0000000000
H   -0.5793833443   -1.1407573037   0.0000000000
 3
Model 8  E= -76.351219
O   -0.1488286335   -0.1835243767   0.0000000000
H   -0.8410090029   0.7899355579   0.0000000000
H   -0.5632064336   -1.0587783971   0.0000000000
 3
Model 9  E= -76.356489
O   -0.2324040231   -0.0472904246   0.0000000000
H   -0.7436937816   0.6088501688   0.0000000000
H   -0.5769462652   -1.0139269601   0.0000000000
 3
Model 10  E= -76.384165
O   -0.1667186314   -0.1270689398   0.0000000000
H   -0.8037450683   0.6476446697   0.0000000000
H   -0.5825803702   -0.9729429459   0.0000000000
 3
Model 11  E= -76.3758
O   -0.0756344960   -0.0752282468   0.0000000000
H   -0.8323882146   0.6066416808   -0.0000000000
H   -0.6450213594   -0.9837806499   0.0000000000
 3
Model 12  E= -76.385564
O   -0.1189948654   -0.0876364220   0.0000000000
H   -0.8097616305   0.5871307120   -0.0000000000
H   -0.6242875741   -0.9518615059   0.0000000000
 3
Model 13  E= -76.376629
O   -0.0851035577   -0.1318024657   0.0000000000
H   -0.8363647950   0.5296324550   0.0000000000
H   -0.6315757173   -0.8501972053   0.0000000000
 3
Model 14  E= -76.384773
O   -0.0988570935   -0.0999754919   0.0000000000
H   -0.8193426648   0.5481167552   -0.0000000000
H   -0.6348443117   -0.9005084793   0.0000000000
 3
Model 15  E= -76.386214
O   -0.1703667338   -0.1085861807   -0.0000000000
H   -0.7923677487   0.6215811655   0.0000000000
H   -0.5903095875   -0.9653622007   0.0000000000
 3
Model 16  E= -76.386882
O   -0.1445948217   -0.1044054282   -0.0000000000
H   -0.8027392646   0.6024477106   0.0000000000
H   -0.6057099836   -0.9504094984   0.0000000000
 3
Model 17  E= -76.38689
O   -0.1421050534   -0.1030877781   -0.0000000000
H   -0.8033483535   0.5996413374   0.0000000000
H   -0.6075906631   -0.9489207754   0.0000000000
 3
Model 18  E= -76.38689
O   -0.1421696049   -0.1033290983   -0.0000000000
H   -0.8034631823   0.6002547909   0.0000000000
H   -0.6074112828   -0.9492929086   0.0000000000
 3
Model 19  E= -76.38689
O   -0.1422831649   -0.1033009247   -0.0000000000
H   -0.8033894329   0.6002287619   0.0000000000
H   -0.6073714722   -0.9492950531   0.0000000000
